*include,input=all.msh
*include,input=fix.nam
*include,input=load.nam

*material,name=steel
*elastic
210e9,0.3

*solidsection,material=steel,elset=Eall

*boundary
Nfix,1
Nfix,2
Nfix,3

**
*step
*static
*cload
Nload,2,4.2857e5
*nodeprint,nset=Nall
u
*elprint,elset=Eall
S
*nodefile
u
*elfile
s
*endstep
